Sistemas teste e codigos/MetodoKataoka/Sistemas/case107.m
function mpc = case107

% %% Case name
%  mpc.name = 'Brasil107_CPF';
 
%% system MVA base
mpc.baseMVA = 100;

%% bus data
%	bus_i			  type			   Pd			   Qd			   Gs			   	Bs		    Bus_Area		   Vm			 Va				Base_KV			  Zone			  Vmax			  Vmin
mpc.bus = [
   12.000000	    2.000000	    0.000000	    0.000000	    0.000000	    0.000000	    1.000000	    1.000000	  -24.000000	    0.000000	    1.000000	    1.060000	    0.940000;
   16.000000	    2.000000	    0.000000	    0.000000	    0.000000	    0.000000	    1.000000	    1.000000	  -26.000000	    0.000000	    1.000000	    1.060000	    0.940000;
   18.000000	    3.000000	    0.000000	    0.000000	    0.000000	    0.000000	    1.000000	    1.020000	  -24.000000	    0.000000	    1.000000	    1.060000	    0.940000;
   20.000000	    2.000000	    0.000000	    0.000000	    0.000000	    0.000000	    1.000000	    1.010000	  -22.000000	    0.000000	    1.000000	    1.060000	    0.940000;
   21.000000	    2.000000	    0.000000	    0.000000	    0.000000	    0.000000	    3.000000	    1.000000	  -63.000000	    0.000000	    1.000000	    1.060000	    0.940000;
   22.000000	    2.000000	    0.000000	    0.000000	    0.000000	    0.000000	    1.000000	    1.000000	  -20.000000	    0.000000	    1.000000	    1.060000	    0.940000;
   35.000000	    2.000000	    0.000000	    0.000000	    0.000000	    0.000000	    1.000000	    1.000000	  -27.000000	    0.000000	    1.000000	    1.060000	    0.940000;
   48.000000	    2.000000	    0.000000	    0.000000	    0.000000	    0.000000	    1.000000	    1.000000	  -42.000000	    0.000000	    1.000000	    1.060000	    0.940000;
   86.000000	    1.000000	   66.000000	    1.200000	    0.000000	    0.000000	    1.000000	    1.033000	  -42.000000	    0.000000	    1.000000	    1.060000	    0.940000;
  100.000000	    1.000000	    0.000000	    0.000000	    0.000000	    0.000000	    1.000000	    1.056000	  -28.000000	    0.000000	    1.000000	    1.060000	    0.940000;
  101.000000	    1.000000	    0.000000	    0.000000	    0.000000	 -200.000000	    1.000000	    1.069000	  -36.000000	    0.000000	    1.000000	    1.060000	    0.940000;
  102.000000	    1.000000	    0.000000	    0.000000	    0.000000	 -100.000000	    1.000000	    1.059000	  -43.000000	    0.000000	    1.000000	    1.060000	    0.940000;
  103.000000	    1.000000	    0.000000	    0.000000	    0.000000	    0.000000	    1.000000	    1.072000	  -43.000000	    0.000000	    1.000000	    1.060000	    0.940000;
  104.000000	    1.000000	  910.000000	  235.000000	    0.000000	    0.000000	    1.000000	    1.061000	  -51.000000	    0.000000	    1.000000	    1.060000	    0.940000;
  106.000000	    1.000000	    0.000000	    0.000000	    0.000000	 -100.000000	    1.000000	    1.050000	  -52.000000	    0.000000	    1.000000	    1.060000	    0.940000;
  120.000000	    1.000000	  180.000000	   90.000000	    0.000000	    0.000000	    1.000000	    1.041000	  -41.000000	    0.000000	    1.000000	    1.060000	    0.940000;
  122.000000	    1.000000	  200.000000	   38.000000	    0.000000	    0.000000	    1.000000	    1.067000	  -41.000000	    0.000000	    1.000000	    1.060000	    0.940000;
  123.000000	    1.000000	  450.000000	  175.000000	    0.000000	    0.000000	    1.000000	    1.035000	  -46.000000	    0.000000	    1.000000	    1.060000	    0.940000;
  126.000000	    1.000000	  290.000000	   95.000000	    0.000000	    0.000000	    1.000000	    1.037000	  -43.000000	    0.000000	    1.000000	    1.060000	    0.940000;
  131.000000	    1.000000	    0.000000	    0.000000	    0.000000	    0.000000	    1.000000	    1.027000	  -27.000000	    0.000000	    1.000000	    1.060000	    0.940000;
  134.000000	    1.000000	    0.000000	    0.000000	    0.000000	    0.000000	    1.000000	    1.027000	  -26.000000	    0.000000	    1.000000	    1.060000	    0.940000;
  136.000000	    1.000000	   54.000000	   23.000000	    0.000000	    0.000000	    1.000000	    1.028000	  -33.000000	    0.000000	    1.000000	    1.060000	    0.940000;
  138.000000	    1.000000	   72.000000	   34.000000	    0.000000	    0.000000	    1.000000	    1.036000	  -44.000000	    0.000000	    1.000000	    1.060000	    0.940000;
  140.000000	    1.000000	  700.000000	  250.000000	    0.000000	    0.000000	    1.000000	    1.023000	  -53.000000	    0.000000	    1.000000	    1.060000	    0.940000;
  210.000000	    1.000000	    0.000000	    0.000000	    0.000000	    0.000000	    1.000000	    1.048000	  -27.000000	    0.000000	    1.000000	    1.060000	    0.940000;
  213.000000	    1.000000	   93.000000	   39.000000	    0.000000	    0.000000	    1.000000	    1.050000	  -29.000000	    0.000000	    1.000000	    1.060000	    0.940000;
  216.000000	    1.000000	   53.000000	   25.000000	    0.000000	    0.000000	    1.000000	    1.049000	  -28.000000	    0.000000	    1.000000	    1.060000	    0.940000;
  217.000000	    1.000000	  364.000000	   58.000000	    0.000000	    0.000000	    1.000000	    1.050000	  -32.000000	    0.000000	    1.000000	    1.060000	    0.940000;
  218.000000	    1.000000	  600.000000	  200.000000	    0.000000	    0.000000	    1.000000	    1.025000	  -40.000000	    0.000000	    1.000000	    1.060000	    0.940000;
  219.000000	    1.000000	    0.000000	    0.000000	    0.000000	    0.000000	    1.000000	    1.028000	  -39.000000	    0.000000	    1.000000	    1.060000	    0.940000;
  220.000000	    1.000000	    0.000000	    0.000000	    0.000000	    0.000000	    1.000000	    1.052000	  -32.000000	    0.000000	    1.000000	    1.060000	    0.940000;
  225.000000	    1.000000	    0.000000	    0.000000	    0.000000	    0.000000	    1.000000	    1.000000	  -34.000000	    0.000000	    1.000000	    1.060000	    0.940000;
  228.000000	    1.000000	   86.000000	   34.000000	    0.000000	    0.000000	    1.000000	    1.016000	  -40.000000	    0.000000	    1.000000	    1.060000	    0.940000;
  231.000000	    1.000000	   89.700000	   31.900000	    0.000000	    0.000000	    3.000000	    1.004000	  -49.000000	    0.000000	    1.000000	    1.060000	    0.940000;
  233.000000	    1.000000	    0.000000	    0.000000	    0.000000	    0.000000	    1.000000	    1.039000	  -36.000000	    0.000000	    1.000000	    1.060000	    0.940000;
  234.000000	    1.000000	 1000.000000	  350.000000	    0.000000	    0.000000	    1.000000	    1.027000	  -39.000000	    0.000000	    1.000000	    1.060000	    0.940000;
  300.000000	    2.000000	    0.000000	    0.000000	    0.000000	    0.000000	    1.000000	    1.020000	  -19.000000	    0.000000	    1.000000	    1.060000	    0.940000;
  301.000000	    2.000000	    0.000000	    0.000000	    0.000000	    0.000000	    1.000000	    1.010000	  -19.000000	    0.000000	    1.000000	    1.060000	    0.940000;
  302.000000	    2.000000	    0.000000	    0.000000	    0.000000	    0.000000	    1.000000	    1.020000	  -18.000000	    0.000000	    1.000000	    1.060000	    0.940000;
  303.000000	    2.000000	    0.000000	    0.000000	    0.000000	    0.000000	    1.000000	    1.020000	  -24.000000	    0.000000	    1.000000	    1.060000	    0.940000;
  305.000000	    2.000000	    0.000000	    0.000000	    0.000000	    0.000000	    1.000000	    1.000000	  -22.000000	    0.000000	    1.000000	    1.060000	    0.940000;
  320.000000	    1.000000	    0.000000	    0.000000	    0.000000	    0.000000	    1.000000	    1.049000	  -24.000000	    0.000000	    1.000000	    1.060000	    0.940000;
  325.000000	    1.000000	    0.000000	    0.000000	    0.000000	    0.000000	    1.000000	    1.046000	  -23.000000	    0.000000	    1.000000	    1.060000	    0.940000;
  326.000000	    1.000000	  274.000000	  104.000000	    0.000000	    0.000000	    1.000000	    1.033000	  -26.000000	    0.000000	    1.000000	    1.060000	    0.940000;
  360.000000	    1.000000	    0.000000	    0.000000	    0.000000	    0.000000	    1.000000	    1.046000	  -22.000000	    0.000000	    1.000000	    1.060000	    0.940000;
  370.000000	    1.000000	    0.000000	    0.000000	    0.000000	    0.000000	    1.000000	    1.049000	  -25.000000	    0.000000	    1.000000	    1.060000	    0.940000;
  396.000000	    1.000000	    0.000000	    0.000000	    0.000000	    0.000000	    1.000000	    1.041000	  -26.000000	    0.000000	    1.000000	    1.060000	    0.940000;
  500.000000	    2.000000	    0.000000	    0.000000	    0.000000	    0.000000	    1.000000	    1.020000	  -21.000000	    0.000000	    1.000000	    1.060000	    0.940000;
  535.000000	    1.000000	    0.000000	    0.000000	    0.000000	    0.000000	    1.000000	    1.035000	  -26.000000	    0.000000	    1.000000	    1.060000	    0.940000;
  536.000000	    1.000000	  700.000000	  150.000000	    0.000000	    0.000000	    1.000000	    1.023000	  -29.000000	    0.000000	    1.000000	    1.060000	    0.940000;
  800.000000	    2.000000	    0.000000	    0.000000	    0.000000	    0.000000	    2.000000	    1.020000	   -6.900000	    0.000000	    1.000000	    1.060000	    0.940000;
  808.000000	    2.000000	    0.000000	    0.000000	    0.000000	    0.000000	    2.000000	    1.020000	    3.720000	    0.000000	    1.000000	    1.060000	    0.940000;
  810.000000	    2.000000	    0.000000	    0.000000	    0.000000	    0.000000	    2.000000	    1.020000	   -3.800000	    0.000000	    1.000000	    1.060000	    0.940000;
  814.000000	    1.000000	  735.400000	  191.000000	    0.000000	    0.000000	    2.000000	    1.000000	  -37.000000	    0.000000	    1.000000	    1.060000	    0.940000;
  824.000000	    1.000000	    0.000000	    0.000000	    0.000000	    0.000000	    2.000000	    1.038000	  -17.000000	    0.000000	    1.000000	    1.060000	    0.940000;
  834.000000	    1.000000	   13.400000	    4.200000	    0.000000	    0.000000	    2.000000	    0.991000	  -29.000000	    0.000000	    1.000000	    1.060000	    0.940000;
  839.000000	    1.000000	    0.000000	    0.000000	    0.000000	    0.000000	    2.000000	    0.999000	   -6.200000	    0.000000	    1.000000	    1.060000	    0.940000;
  840.000000	    1.000000	  159.000000	   36.000000	    0.000000	    0.000000	    2.000000	    0.986000	   -9.200000	    0.000000	    1.000000	    1.060000	    0.940000;
  848.000000	    1.000000	   94.000000	   18.000000	    0.000000	    0.000000	    2.000000	    0.999000	   -5.300000	    0.000000	    1.000000	    1.060000	    0.940000;
  856.000000	    1.000000	    0.000000	    0.000000	    0.000000	    0.000000	    2.000000	    1.035000	  -11.000000	    0.000000	    1.000000	    1.060000	    0.940000;
  895.000000	    1.000000	    0.000000	    0.000000	    0.000000	    0.000000	    2.000000	    1.044000	  -35.000000	    0.000000	    1.000000	    1.060000	    0.940000;
  896.000000	    1.000000	    0.000000	    0.000000	    0.000000	    0.000000	    2.000000	    1.028000	   -4.100000	    0.000000	    1.000000	    1.060000	    0.940000;
  897.000000	    1.000000	    0.000000	    0.000000	    0.000000	    0.000000	    2.000000	    1.039000	   -2.800000	    0.000000	    1.000000	    1.060000	    0.940000;
  898.000000	    1.000000	    0.000000	    0.000000	    0.000000	    0.000000	    2.000000	    1.012000	   -1.900000	    0.000000	    1.000000	    1.060000	    0.940000;
  904.000000	    2.000000	    0.000000	    0.000000	    0.000000	    0.000000	    2.000000	    1.020000	  -15.000000	    0.000000	    1.000000	    1.060000	    0.940000;
  915.000000	    2.000000	    0.000000	    0.000000	    0.000000	    0.000000	    2.000000	    1.020000	  -13.000000	    0.000000	    1.000000	    1.060000	    0.940000;
  919.000000	    2.000000	    0.000000	    0.000000	    0.000000	    0.000000	    2.000000	    1.000000	    5.980000	    0.000000	    1.000000	    1.060000	    0.940000;
  925.000000	    2.000000	    0.000000	    0.000000	    0.000000	    0.000000	    2.000000	    1.020000	    0.108000	    0.000000	    1.000000	    1.060000	    0.940000;
  933.000000	    1.000000	    0.000000	    0.000000	    0.000000	    0.000000	    2.000000	    1.038000	  -18.000000	    0.000000	    1.000000	    1.060000	    0.940000;
  934.000000	    1.000000	  237.000000	   59.000000	    0.000000	    0.000000	    2.000000	    1.000000	  -18.000000	    0.000000	    1.000000	    1.060000	    0.940000;
  938.000000	    1.000000	    0.000000	    0.000000	    0.000000	    0.000000	    2.000000	    1.043000	  -37.000000	    0.000000	    1.000000	    1.060000	    0.940000;
  939.000000	    1.000000	 1149.000000	   53.060000	    0.000000	    0.000000	    2.000000	    1.000000	  -40.000000	    0.000000	    1.000000	    1.060000	    0.940000;
  955.000000	    1.000000	    0.000000	    0.000000	    0.000000	    0.000000	    2.000000	    1.058000	  -23.000000	    0.000000	    1.000000	    1.060000	    0.940000;
  959.000000	    1.000000	    0.000000	    0.000000	    0.000000	  100.000000	    2.000000	    1.033000	  -35.000000	    0.000000	    1.000000	    1.060000	    0.940000;
  960.000000	    1.000000	  844.700000	  469.100000	    0.000000	    0.000000	    2.000000	    1.000000	  -37.000000	    0.000000	    1.000000	    1.060000	    0.940000;
  964.000000	    1.000000	    0.000000	    0.000000	    0.000000	    0.000000	    2.000000	    1.037000	  -31.000000	    0.000000	    1.000000	    1.060000	    0.940000;
  965.000000	    1.000000	  755.600000	   56.240000	    0.000000	    0.000000	    2.000000	    1.000000	  -33.000000	    0.000000	    1.000000	    1.060000	    0.940000;
  976.000000	    1.000000	    0.000000	    0.000000	    0.000000	    0.000000	    2.000000	    1.012000	  -33.000000	    0.000000	    1.000000	    1.060000	    0.940000;
  995.000000	    1.000000	    0.000000	    0.000000	    0.000000	    0.000000	    2.000000	    1.050000	  -19.000000	    0.000000	    1.000000	    1.060000	    0.940000;
 1015.000000	    1.000000	   70.000000	    2.000000	    0.000000	    0.000000	    2.000000	    0.998000	  -39.000000	    0.000000	    1.000000	    1.060000	    0.940000;
 1030.000000	    1.000000	    0.000000	    0.000000	    0.000000	    0.000000	    2.000000	    1.052000	  -21.000000	    0.000000	    1.000000	    1.060000	    0.940000;
 1047.000000	    1.000000	    0.000000	    0.000000	    0.000000	    0.000000	    2.000000	    1.017000	   -0.920000	    0.000000	    1.000000	    1.060000	    0.940000;
 1060.000000	    1.000000	    0.000000	    0.000000	    0.000000	    0.000000	    2.000000	    1.043000	   -7.900000	    0.000000	    1.000000	    1.060000	    0.940000;
 1210.000000	    1.000000	 1228.000000	  425.000000	    0.000000	    0.000000	    2.000000	    1.000000	  -36.000000	    0.000000	    1.000000	    1.060000	    0.940000;
 1503.000000	    1.000000	    0.000000	    0.000000	    0.000000	    0.000000	    1.000000	    1.061000	  -49.000000	    0.000000	    1.000000	    1.060000	    0.940000;
 1504.000000	    1.000000	  145.000000	   63.000000	    0.000000	    0.000000	    1.000000	    1.028000	  -53.000000	    0.000000	    1.000000	    1.060000	    0.940000;
 2458.000000	    1.000000	  403.000000	  126.000000	    0.000000	    0.000000	    2.000000	    1.000000	   -6.400000	    0.000000	    1.000000	    1.060000	    0.940000;
 4501.000000	    1.000000	   31.400000	    7.100000	    0.000000	  -45.000000	    3.000000	    1.022000	  -61.000000	    0.000000	    1.000000	    1.060000	    0.940000;
 4521.000000	    1.000000	    0.000000	    0.000000	    0.000000	    0.000000	    3.000000	    1.032000	  -67.000000	    0.000000	    1.000000	    1.060000	    0.940000;
 4522.000000	    1.000000	    0.000000	    0.000000	    0.000000	  -20.000000	    3.000000	    1.030000	  -69.000000	    0.000000	    1.000000	    1.060000	    0.940000;
 4523.000000	    2.000000	    0.000000	    0.000000	    0.000000	    0.000000	    3.000000	    1.010000	  -61.000000	    0.000000	    1.000000	    1.060000	    0.940000;
 4530.000000	    2.000000	    0.000000	    0.000000	    0.000000	    0.000000	    3.000000	    1.020000	  -73.000000	    0.000000	    1.000000	    1.060000	    0.940000;
 4532.000000	    1.000000	    0.000000	    0.000000	    0.000000	    0.000000	    3.000000	    1.040000	  -73.000000	    0.000000	    1.000000	    1.060000	    0.940000;
 4533.000000	    1.000000	   75.400000	   16.100000	    0.000000	    0.000000	    3.000000	    1.014000	  -74.000000	    0.000000	    1.000000	    1.060000	    0.940000;
 4542.000000	    1.000000	    0.000000	    0.000000	    0.000000	    0.000000	    3.000000	    1.025000	  -72.000000	    0.000000	    1.000000	    1.060000	    0.940000;
 4552.000000	    1.000000	   12.600000	    1.200000	    0.000000	  -20.000000	    3.000000	    1.006000	  -80.000000	    0.000000	    1.000000	    1.060000	    0.940000;
 4562.000000	    1.000000	   23.800000	    7.400000	    0.000000	    0.000000	    3.000000	    1.011000	  -88.000000	    0.000000	    1.000000	    1.060000	    0.940000;
 4572.000000	    1.000000	   18.000000	    6.400000	    0.000000	    0.000000	    3.000000	    1.008000	  -85.000000	    0.000000	    1.000000	    1.060000	    0.940000;
 4582.000000	    1.000000	   65.500000	   16.700000	    0.000000	   30.000000	    3.000000	    1.017000	  -91.000000	    0.000000	    1.000000	    1.060000	    0.940000;
 4592.000000	    1.000000	    0.000000	    0.000000	    0.000000	    0.000000	    3.000000	    1.018000	  -68.000000	    0.000000	    1.000000	    1.060000	    0.940000;
 4596.000000	    2.000000	    0.000000	    0.000000	    0.000000	    0.000000	    3.000000	    1.000000	  -69.000000	    0.000000	    1.000000	    1.060000	    0.940000;
 4623.000000	    1.000000	  128.200000	   40.760000	    0.000000	    0.000000	    3.000000	    1.015000	  -72.000000	    0.000000	    1.000000	    1.060000	    0.940000;
 4703.000000	    1.000000	  182.100000	   29.750000	    0.000000	    0.000000	    3.000000	    1.002000	  -75.000000	    0.000000	    1.000000	    1.060000	    0.940000;
 4804.000000	    2.000000	    0.000000	    0.000000	    0.000000	    0.000000	    3.000000	    1.000000	  -75.000000	    0.000000	    1.000000	    1.060000	    0.940000;
 4805.000000	    1.000000	    0.000000	    0.000000	    0.000000	    0.000000	    3.000000	    1.024000	  -79.000000	    0.000000	    1.000000	    1.060000	    0.940000;
 4807.000000	    1.000000	  128.900000	   36.300000	    0.000000	    0.000000	    3.000000	    1.024000	  -80.000000	    0.000000	    1.000000	    1.060000	    0.940000;
 4862.000000	    1.000000	    0.000000	    0.000000	    0.000000	  -30.000000	    3.000000	    1.046000	  -78.000000	    0.000000	    1.000000	    1.060000	    0.940000;
];

%% generator data
%	bus               Pg               Qg			 Qmax			 Qmin			   Vg			MBase		   Gen_Status		Pmax			  Pmin				PC1 		  PC2 			 QC1Min 		 QC1Max			 QC2Min			 QC2Max			RAMP_AGC		RAMP_10			RAMP_30			RAMP_Q			   APF
mpc.gen = [
   12.000000	  300.000000	 -203.000000	  420.000000	 -540.000000	    1.000000	  100.000000	    1.000000	  350.000000	    0.000000	    0.000000	    0.000000	    0.000000	    0.000000	    0.000000	    0.000000	    0.000000	    0.000000	    0.000000	    0.000000	    0.000000;
   16.000000	  800.000000	 -134.000000	  480.000000	 -720.000000	    1.000000	  100.000000	    1.000000	  350.000000	    0.000000	    0.000000	    0.000000	    0.000000	    0.000000	    0.000000	    0.000000	    0.000000	    0.000000	    0.000000	    0.000000	    0.000000;
   18.000000	  996.100000	 -399.000000	  9999999999	 -9999999999	    1.020000	  100.000000	    1.000000	  350.000000	    0.000000	    0.000000	    0.000000	    0.000000	    0.000000	    0.000000	    0.000000	    0.000000	    0.000000	    0.000000	    0.000000	    0.000000;
   20.000000	  900.000000	 -321.000000	  640.000000	 -640.000000	    1.010000	  100.000000	    1.000000	  350.000000	    0.000000	    0.000000	    0.000000	    0.000000	    0.000000	    0.000000	    0.000000	    0.000000	    0.000000	    0.000000	    0.000000	    0.000000;
   21.000000	  140.000000	  -21.600000	   84.000000	  -80.000000	    1.000000	  100.000000	    1.000000	  350.000000	    0.000000	    0.000000	    0.000000	    0.000000	    0.000000	    0.000000	    0.000000	    0.000000	    0.000000	    0.000000	    0.000000	    0.000000;
   22.000000	  150.000000	  -20.600000	  126.000000	 -120.000000	    1.000000	  100.000000	    1.000000	  350.000000	    0.000000	    0.000000	    0.000000	    0.000000	    0.000000	    0.000000	    0.000000	    0.000000	    0.000000	    0.000000	    0.000000	    0.000000;
   35.000000	  200.000000	  -49.400000	  180.000000	 -180.000000	    1.000000	  100.000000	    1.000000	  350.000000	    0.000000	    0.000000	    0.000000	    0.000000	    0.000000	    0.000000	    0.000000	    0.000000	    0.000000	    0.000000	    0.000000	    0.000000;
   48.000000	    0.000000	 -461.000000	 1200.000000	-1080.000000	    1.000000	  100.000000	    1.000000	  350.000000	    0.000000	    0.000000	    0.000000	    0.000000	    0.000000	    0.000000	    0.000000	    0.000000	    0.000000	    0.000000	    0.000000	    0.000000;
  300.000000	  700.000000	 -183.000000	  392.000000	 -440.000000	    1.020000	  100.000000	    1.000000	  350.000000	    0.000000	    0.000000	    0.000000	    0.000000	    0.000000	    0.000000	    0.000000	    0.000000	    0.000000	    0.000000	    0.000000	    0.000000;
  301.000000	  300.000000	 -128.000000	  140.000000	 -140.000000	    1.010000	  100.000000	    1.000000	  350.000000	    0.000000	    0.000000	    0.000000	    0.000000	    0.000000	    0.000000	    0.000000	    0.000000	    0.000000	    0.000000	    0.000000	    0.000000;
  302.000000	  400.000000	 -125.000000	  150.000000	 -150.000000	    1.020000	  100.000000	    1.000000	  350.000000	    0.000000	    0.000000	    0.000000	    0.000000	    0.000000	    0.000000	    0.000000	    0.000000	    0.000000	    0.000000	    0.000000	    0.000000;
  303.000000	  200.000000	 -279.000000	  600.000000	 -600.000000	    1.020000	  100.000000	    1.000000	  350.000000	    0.000000	    0.000000	    0.000000	    0.000000	    0.000000	    0.000000	    0.000000	    0.000000	    0.000000	    0.000000	    0.000000	    0.000000;
  305.000000	  300.000000	  -60.300000	  120.000000	 -120.000000	    1.000000	  100.000000	    1.000000	  350.000000	    0.000000	    0.000000	    0.000000	    0.000000	    0.000000	    0.000000	    0.000000	    0.000000	    0.000000	    0.000000	    0.000000	    0.000000;
  500.000000	  800.000000	 -118.000000	  540.000000	 -540.000000	    1.020000	  100.000000	    1.000000	  350.000000	    0.000000	    0.000000	    0.000000	    0.000000	    0.000000	    0.000000	    0.000000	    0.000000	    0.000000	    0.000000	    0.000000	    0.000000;
  800.000000	 1100.000000	  138.400000	  800.000000	 -800.000000	    1.020000	  100.000000	    1.000000	  350.000000	    0.000000	    0.000000	    0.000000	    0.000000	    0.000000	    0.000000	    0.000000	    0.000000	    0.000000	    0.000000	    0.000000	    0.000000;
  808.000000	 1150.000000	  114.400000	  600.000000	 -600.000000	    1.020000	  100.000000	    1.000000	  350.000000	    0.000000	    0.000000	    0.000000	    0.000000	    0.000000	    0.000000	    0.000000	    0.000000	    0.000000	    0.000000	    0.000000	    0.000000;
  810.000000	 1200.000000	  -72.200000	  532.000000	 -400.000000	    1.020000	  100.000000	    1.000000	  350.000000	    0.000000	    0.000000	    0.000000	    0.000000	    0.000000	    0.000000	    0.000000	    0.000000	    0.000000	    0.000000	    0.000000	    0.000000;
  904.000000	  700.000000	 -236.000000	  475.000000	 -475.000000	    1.020000	  100.000000	    1.000000	  350.000000	    0.000000	    0.000000	    0.000000	    0.000000	    0.000000	    0.000000	    0.000000	    0.000000	    0.000000	    0.000000	    0.000000	    0.000000;
  915.000000	  700.000000	 -109.000000	  465.000000	 -516.000000	    1.020000	  100.000000	    1.000000	  350.000000	    0.000000	    0.000000	    0.000000	    0.000000	    0.000000	    0.000000	    0.000000	    0.000000	    0.000000	    0.000000	    0.000000	    0.000000;
  919.000000	  700.000000	   89.060000	  220.000000	 -148.000000	    1.000000	  100.000000	    1.000000	  350.000000	    0.000000	    0.000000	    0.000000	    0.000000	    0.000000	    0.000000	    0.000000	    0.000000	    0.000000	    0.000000	    0.000000	    0.000000;
  925.000000	  950.000000	   73.050000	  420.000000	 -440.000000	    1.020000	  100.000000	    1.000000	  350.000000	    0.000000	    0.000000	    0.000000	    0.000000	    0.000000	    0.000000	    0.000000	    0.000000	    0.000000	    0.000000	    0.000000	    0.000000;
  4523.00000	   50.000000	   -8.210000	   30.000000	  -42.000000	    1.010000	  100.000000	    1.000000	  350.000000	    0.000000	    0.000000	    0.000000	    0.000000	    0.000000	    0.000000	    0.000000	    0.000000	    0.000000	    0.000000	    0.000000	    0.000000;
  4530.00000	    0.000000	    0.000000	   70.000000	  -50.000000	    1.020000	  100.000000	    1.020000	  350.000000	    0.000000	    0.000000	    0.000000	    0.000000	    0.000000	    0.000000	    0.000000	    0.000000	    0.000000	    0.000000	    0.000000	    0.000000;
 4596.000000	  230.000000	  -27.300000	  160.000000	 -160.000000	    1.000000	  100.000000	    1.000000	  350.000000	    0.000000	    0.000000	    0.000000	    0.000000	    0.000000	    0.000000	    0.000000	    0.000000	    0.000000	    0.000000	    0.000000	    0.000000;
 4804.000000	   50.000000	  -16.500000	   59.000000	  -86.000000	    1.000000	  100.000000	    1.000000	  350.000000	    0.000000	    0.000000	    0.000000	    0.000000	    0.000000	    0.000000	    0.000000	    0.000000	    0.000000	    0.000000	    0.000000	    0.000000;
];


%% branch data
%	Fbus			 Tbus				r				x				b			ratio_A			ratio_B			ratio_C			  TAP			 angle			 status			angmin			angmax
mpc.branch = [
   86.000000	   48.000000	    0.000000	    0.007148	    0.000000	    0.000000	    0.000000	    0.000000	    1.000000	    0.000000	    1.000000	 -360.000000	  360.000000;
   86.000000	  122.000000	    0.000000	    0.019130	    0.000000	    0.000000	    0.000000	    0.000000	    1.000000	    0.000000	    1.000000	 -360.000000	  360.000000;
   86.000000	  122.000000	    0.000000	    0.019130	    0.000000	    0.000000	    0.000000	    0.000000	    1.000000	    0.000000	    1.000000	 -360.000000	  360.000000;
  100.000000	   20.000000	    0.000000	    0.012640	    0.000000	    0.000000	    0.000000	    0.000000	    1.000000	    0.000000	    1.000000	 -360.000000	  360.000000;
  100.000000	  101.000000	    0.001720	    0.027200	    2.314000	    0.000000	    0.000000	    0.000000	    1.000000	    0.000000	    1.000000	 -360.000000	  360.000000;
  100.000000	  101.000000	    0.001710	    0.027000	    2.302000	    0.000000	    0.000000	    0.000000	    1.000000	    0.000000	    1.000000	 -360.000000	  360.000000;
  100.000000	  210.000000	    0.002090	    0.029350	    2.546000	    0.000000	    0.000000	    0.000000	    1.000000	    0.000000	    1.000000	 -360.000000	  360.000000;
  100.000000	  213.000000	    0.000000	    0.023570	    0.000000	    0.000000	    0.000000	    0.000000	    1.000000	    0.000000	    1.000000	 -360.000000	  360.000000;
  100.000000	  535.000000	    0.001530	    0.024000	    2.038000	    0.000000	    0.000000	    0.000000	    1.000000	    0.000000	    1.000000	 -360.000000	  360.000000;
  101.000000	  102.000000	    0.001560	    0.024600	    2.085000	    0.000000	    0.000000	    0.000000	    1.000000	    0.000000	    1.000000	 -360.000000	  360.000000;
  101.000000	  103.000000	    0.001520	    0.023900	    2.026000	    0.000000	    0.000000	    0.000000	    1.000000	    0.000000	    1.000000	 -360.000000	  360.000000;
  102.000000	  120.000000	    0.000000	    0.024030	    0.000000	    0.000000	    0.000000	    0.000000	    1.000000	    0.000000	    1.000000	 -360.000000	  360.000000;
  102.000000	 1503.000000	    0.001100	    0.019100	    1.618500	    0.000000	    0.000000	    0.000000	    1.000000	    0.000000	    1.000000	 -360.000000	  360.000000;
  103.000000	  123.000000	    0.000000	    0.024190	    0.000000	    0.000000	    0.000000	    0.000000	    1.000000	    0.000000	    1.000000	 -360.000000	  360.000000;
  104.000000	  103.000000	    0.001960	    0.031000	    2.649000	    0.000000	    0.000000	    0.000000	    1.000000	    0.000000	    1.000000	 -360.000000	  360.000000;
  104.000000	 1503.000000	    0.000500	    0.008200	    0.693600	    0.000000	    0.000000	    0.000000	    1.000000	    0.000000	    1.000000	 -360.000000	  360.000000;
  106.000000	  104.000000	    0.001520	    0.023900	    2.027000	    0.000000	    0.000000	    0.000000	    1.000000	    0.000000	    1.000000	 -360.000000	  360.000000;
  106.000000	  104.000000	    0.001520	    0.023900	    2.031000	    0.000000	    0.000000	    0.000000	    1.000000	    0.000000	    1.000000	 -360.000000	  360.000000;
  106.000000	  140.000000	    0.000000	    0.029230	    0.000000	    0.000000	    0.000000	    0.000000	    1.000000	    0.000000	    1.000000	 -360.000000	  360.000000;
  106.000000	  140.000000	    0.000000	    0.026680	    0.000000	    0.000000	    0.000000	    0.000000	    1.000000	    0.000000	    1.000000	 -360.000000	  360.000000;
  122.000000	  103.000000	    0.001050	    0.016190	    1.363500	    0.000000	    0.000000	    0.000000	    1.000000	    0.000000	    1.000000	 -360.000000	  360.000000;
  123.000000	  120.000000	    0.003590	    0.039450	    0.666800	    0.000000	    0.000000	    0.000000	    1.000000	    0.000000	    1.000000	 -360.000000	  360.000000;
  126.000000	   86.000000	    0.001090	    0.018260	    0.511800	    0.000000	    0.000000	    0.000000	    1.000000	    0.000000	    1.000000	 -360.000000	  360.000000;
  126.000000	   86.000000	    0.001090	    0.018240	    0.511800	    0.000000	    0.000000	    0.000000	    1.000000	    0.000000	    1.000000	 -360.000000	  360.000000;
  126.000000	  120.000000	    0.006000	    0.059500	    0.928000	    0.000000	    0.000000	    0.000000	    1.000000	    0.000000	    1.000000	 -360.000000	  360.000000;
  126.000000	  120.000000	    0.006060	    0.060200	    0.938000	    0.000000	    0.000000	    0.000000	    1.000000	    0.000000	    1.000000	 -360.000000	  360.000000;
  131.000000	   22.000000	    0.000000	    0.088333	    0.000000	    0.000000	    0.000000	    0.000000	    1.000000	    0.000000	    1.000000	 -360.000000	  360.000000;
  134.000000	   12.000000	    0.000000	    0.013350	    0.000000	    0.000000	    0.000000	    0.000000	    0.999000	    0.000000	    1.000000	 -360.000000	  360.000000;
  134.000000	  131.000000	    0.000920	    0.010100	    0.169000	    0.000000	    0.000000	    0.000000	    1.000000	    0.000000	    1.000000	 -360.000000	  360.000000;
  134.000000	  396.000000	    0.003200	    0.035090	    0.592400	    0.000000	    0.000000	    0.000000	    1.000000	    0.000000	    1.000000	 -360.000000	  360.000000;
  136.000000	   16.000000	    0.000000	    0.015360	    0.000000	    0.000000	    0.000000	    0.000000	    1.000000	    0.000000	    1.000000	 -360.000000	  360.000000;
  136.000000	  120.000000	    0.004360	    0.043000	    0.666000	    0.000000	    0.000000	    0.000000	    1.000000	    0.000000	    1.000000	 -360.000000	  360.000000;
  136.000000	  120.000000	    0.004360	    0.043000	    0.666000	    0.000000	    0.000000	    0.000000	    1.000000	    0.000000	    1.000000	 -360.000000	  360.000000;
  136.000000	  131.000000	    0.003480	    0.034200	    0.528000	    0.000000	    0.000000	    0.000000	    1.000000	    0.000000	    1.000000	 -360.000000	  360.000000;
  136.000000	  134.000000	    0.003750	    0.041300	    0.699000	    0.000000	    0.000000	    0.000000	    1.000000	    0.000000	    1.000000	 -360.000000	  360.000000;
  136.000000	  138.000000	    0.006490	    0.064600	    1.008000	    0.000000	    0.000000	    0.000000	    1.000000	    0.000000	    1.000000	 -360.000000	  360.000000;
  136.000000	  138.000000	    0.005580	    0.061900	    1.057000	    0.000000	    0.000000	    0.000000	    1.000000	    0.000000	    1.000000	 -360.000000	  360.000000;
  140.000000	  138.000000	    0.006520	    0.065000	    1.014000	    0.000000	    0.000000	    0.000000	    1.000000	    0.000000	    1.000000	 -360.000000	  360.000000;
  140.000000	  138.000000	    0.005580	    0.061900	    1.057000	    0.000000	    0.000000	    0.000000	    1.000000	    0.000000	    1.000000	 -360.000000	  360.000000;
  210.000000	   18.000000	    0.000000	    0.006667	    0.000000	    0.000000	    0.000000	    0.000000	    1.000000	    0.000000	    1.000000	 -360.000000	  360.000000;
  210.000000	  217.000000	    0.000000	    0.017200	    0.000000	    0.000000	    0.000000	    0.000000	    1.000000	    0.000000	    1.000000	 -360.000000	  360.000000;
  210.000000	  217.000000	    0.000000	    0.017200	    0.000000	    0.000000	    0.000000	    0.000000	    1.000000	    0.000000	    1.000000	 -360.000000	  360.000000;
  210.000000	  370.000000	    0.001470	    0.023200	    1.966000	    0.000000	    0.000000	    0.000000	    1.000000	    0.000000	    1.000000	 -360.000000	  360.000000;
  213.000000	  216.000000	    0.002190	    0.024200	    0.407000	    0.000000	    0.000000	    0.000000	    1.000000	    0.000000	    1.000000	 -360.000000	  360.000000;
  216.000000	  396.000000	    0.001290	    0.014140	    0.237700	    0.000000	    0.000000	    0.000000	    1.000000	    0.000000	    1.000000	 -360.000000	  360.000000;
  217.000000	  216.000000	    0.005650	    0.062480	    1.067300	    0.000000	    0.000000	    0.000000	    1.000000	    0.000000	    1.000000	 -360.000000	  360.000000;
  217.000000	  218.000000	    0.005070	    0.056100	    0.956000	    0.000000	    0.000000	    0.000000	    1.000000	    0.000000	    1.000000	 -360.000000	  360.000000;
  217.000000	  218.000000	    0.005070	    0.056100	    0.956000	    0.000000	    0.000000	    0.000000	    1.000000	    0.000000	    1.000000	 -360.000000	  360.000000;
  218.000000	  234.000000	    0.004300	    0.047990	    0.822000	    0.000000	    0.000000	    0.000000	    1.000000	    0.000000	    1.000000	 -360.000000	  360.000000;
  218.000000	  234.000000	    0.004300	    0.047990	    0.822000	    0.000000	    0.000000	    0.000000	    1.000000	    0.000000	    1.000000	 -360.000000	  360.000000;
  219.000000	  234.000000	    0.000350	    0.004330	    0.073400	    0.000000	    0.000000	    0.000000	    1.000000	    0.000000	    1.000000	 -360.000000	  360.000000;
  219.000000	  234.000000	    0.000350	    0.004330	    0.073400	    0.000000	    0.000000	    0.000000	    1.000000	    0.000000	    1.000000	 -360.000000	  360.000000;
  220.000000	   35.000000	    0.000000	    0.044965	    0.000000	    0.000000	    0.000000	    0.000000	    1.025000	    0.000000	    1.000000	 -360.000000	  360.000000;
  220.000000	  217.000000	    0.002260	    0.023960	    0.432350	    0.000000	    0.000000	    0.000000	    1.000000	    0.000000	    1.000000	 -360.000000	  360.000000;
  220.000000	  219.000000	    0.007260	    0.077040	    1.380100	    0.000000	    0.000000	    0.000000	    1.000000	    0.000000	    1.000000	 -360.000000	  360.000000;
  225.000000	  217.000000	    0.000000	    0.027210	    0.000000	    0.000000	    0.000000	    0.000000	    0.950000	    0.000000	    1.000000	 -360.000000	  360.000000;
  225.000000	  217.000000	    0.000000	    0.029380	    0.000000	    0.000000	    0.000000	    0.000000	    0.950000	    0.000000	    1.000000	 -360.000000	  360.000000;
  225.000000	  231.000000	    0.041000	    0.197600	    0.360800	    0.000000	    0.000000	    0.000000	    1.000000	    0.000000	    1.000000	 -360.000000	  360.000000;
  225.000000	  231.000000	    0.012700	    0.136200	    0.494700	    0.000000	    0.000000	    0.000000	    1.000000	    0.000000	    1.000000	 -360.000000	  360.000000;
  228.000000	  219.000000	    0.000000	    0.035950	    0.000000	    0.000000	    0.000000	    0.000000	    1.000000	    0.000000	    1.000000	 -360.000000	  360.000000;
  231.000000	 4501.000000	    0.045100	    0.216900	    0.402500	    0.000000	    0.000000	    0.000000	    1.000000	    0.000000	    1.000000	 -360.000000	  360.000000;
  231.000000	 4501.000000	    0.014900	    0.160900	    0.554000	    0.000000	    0.000000	    0.000000	    1.000000	    0.000000	    1.000000	 -360.000000	  360.000000;
  233.000000	  210.000000	    0.002800	    0.039900	    3.553600	    0.000000	    0.000000	    0.000000	    1.000000	    0.000000	    1.000000	 -360.000000	  360.000000;
  233.000000	  320.000000	    0.002700	    0.038700	    3.440300	    0.000000	    0.000000	    0.000000	    1.000000	    0.000000	    1.000000	 -360.000000	  360.000000;
  234.000000	  233.000000	    0.000000	    0.011130	    0.000000	    0.000000	    0.000000	    0.000000	    1.000000	    0.000000	    1.000000	 -360.000000	  360.000000;
  234.000000	  233.000000	    0.000000	    0.010000	    0.000000	    0.000000	    0.000000	    0.000000	    1.000000	    0.000000	    1.000000	 -360.000000	  360.000000;
  320.000000	  210.000000	    0.001250	    0.019370	    1.499600	    0.000000	    0.000000	    0.000000	    1.000000	    0.000000	    1.000000	 -360.000000	  360.000000;
  320.000000	  300.000000	    0.000000	    0.013567	    0.000000	    0.000000	    0.000000	    0.000000	    1.000000	    0.000000	    1.000000	 -360.000000	  360.000000;
  320.000000	  360.000000	    0.000820	    0.012560	    0.989900	    0.000000	    0.000000	    0.000000	    1.000000	    0.000000	    1.000000	 -360.000000	  360.000000;
  325.000000	  301.000000	    0.000000	    0.026325	    0.000000	    0.000000	    0.000000	    0.000000	    1.000000	    0.000000	    1.000000	 -360.000000	  360.000000;
  325.000000	  326.000000	    0.000000	    0.021600	    0.000000	    0.000000	    0.000000	    0.000000	    1.000000	    0.000000	    1.000000	 -360.000000	  360.000000;
  325.000000	  326.000000	    0.000000	    0.021600	    0.000000	    0.000000	    0.000000	    0.000000	    1.000000	    0.000000	    1.000000	 -360.000000	  360.000000;
  325.000000	  360.000000	    0.001000	    0.015190	    1.196700	    0.000000	    0.000000	    0.000000	    1.000000	    0.000000	    1.000000	 -360.000000	  360.000000;
  325.000000	  370.000000	    0.002800	    0.048400	    4.195000	    0.000000	    0.000000	    0.000000	    1.000000	    0.000000	    1.000000	 -360.000000	  360.000000;
  326.000000	  134.000000	    0.000700	    0.007600	    0.122870	    0.000000	    0.000000	    0.000000	    1.000000	    0.000000	    1.000000	 -360.000000	  360.000000;
  326.000000	  396.000000	    0.002400	    0.027400	    0.454700	    0.000000	    0.000000	    0.000000	    1.000000	    0.000000	    1.000000	 -360.000000	  360.000000;
  360.000000	  302.000000	    0.000000	    0.019367	    0.000000	    0.000000	    0.000000	    0.000000	    1.000000	    0.000000	    1.000000	 -360.000000	  360.000000;
  370.000000	  303.000000	    0.000000	    0.010575	    0.000000	    0.000000	    0.000000	    0.000000	    1.000000	    0.000000	    1.000000	 -360.000000	  360.000000;
  370.000000	  535.000000	    0.000931	    0.013758	    1.123000	    0.000000	    0.000000	    0.000000	    1.000000	    0.000000	    1.000000	 -360.000000	  360.000000;
  396.000000	  305.000000	    0.000000	    0.022000	    0.000000	    0.000000	    0.000000	    0.000000	    1.025000	    0.000000	    1.000000	 -360.000000	  360.000000;
  535.000000	  500.000000	    0.000000	    0.010250	    0.000000	    0.000000	    0.000000	    0.000000	    1.000000	    0.000000	    1.000000	 -360.000000	  360.000000;
  536.000000	  535.000000	    0.000000	    0.015330	    0.000000	    0.000000	    0.000000	    0.000000	    1.000000	    0.000000	    1.000000	 -360.000000	  360.000000;
  536.000000	  535.000000	    0.000000	    0.014200	    0.000000	    0.000000	    0.000000	    0.000000	    1.000000	    0.000000	    1.000000	 -360.000000	  360.000000;
  814.000000	  895.000000	    0.000320	    0.011460	    0.000000	    0.000000	    0.000000	    0.000000	    0.965200	    0.000000	    1.000000	 -360.000000	  360.000000;
  814.000000	  895.000000	    0.000300	    0.011651	    0.000000	    0.000000	    0.000000	    0.000000	    0.965200	    0.000000	    1.000000	 -360.000000	  360.000000;
  824.000000	  800.000000	    0.000000	    0.016800	    0.000000	    0.000000	    0.000000	    0.000000	    1.024000	    0.000000	    1.000000	 -360.000000	  360.000000;
  824.000000	  933.000000	    0.000100	    0.001240	    0.152040	    0.000000	    0.000000	    0.000000	    1.000000	    0.000000	    1.000000	 -360.000000	  360.000000;
  824.000000	  933.000000	    0.000100	    0.001260	    0.154280	    0.000000	    0.000000	    0.000000	    1.000000	    0.000000	    1.000000	 -360.000000	  360.000000;
  834.000000	  934.000000	    0.024440	    0.126520	    0.217060	    0.000000	    0.000000	    0.000000	    1.000000	    0.000000	    1.000000	 -360.000000	  360.000000;
  839.000000	  840.000000	    0.000000	    0.066400	    0.000000	    0.000000	    0.000000	    0.000000	    1.000000	    0.000000	    1.000000	 -360.000000	  360.000000;
  839.000000	  840.000000	    0.000000	    0.062900	    0.000000	    0.000000	    0.000000	    0.000000	    1.000000	    0.000000	    1.000000	 -360.000000	  360.000000;
  839.000000	  898.000000	    0.011300	    0.069900	    0.126170	    0.000000	    0.000000	    0.000000	    1.000000	    0.000000	    1.000000	 -360.000000	  360.000000;
  839.000000	 1047.000000	    0.012200	    0.076900	    0.138100	    0.000000	    0.000000	    0.000000	    1.000000	    0.000000	    1.000000	 -360.000000	  360.000000;
  839.000000	 2458.000000	    0.002200	    0.010900	    0.018601	    0.000000	    0.000000	    0.000000	    1.000000	    0.000000	    1.000000	 -360.000000	  360.000000;
  839.000000	 2458.000000	    0.001700	    0.010300	    0.020537	    0.000000	    0.000000	    0.000000	    1.000000	    0.000000	    1.000000	 -360.000000	  360.000000;
  856.000000	  810.000000	    0.000000	    0.010500	    0.000000	    0.000000	    0.000000	    0.000000	    1.000000	    0.000000	    1.000000	 -360.000000	  360.000000;
  856.000000	  933.000000	    0.000520	    0.006540	    0.804930	    0.000000	    0.000000	    0.000000	    1.000000	    0.000000	    1.000000	 -360.000000	  360.000000;
  856.000000	 1060.000000	    0.000560	    0.006970	    0.857460	    0.000000	    0.000000	    0.000000	    1.000000	    0.000000	    1.000000	 -360.000000	  360.000000;
  895.000000	  122.000000	    0.003080	    0.039580	    4.448400	    0.000000	    0.000000	    0.000000	    1.000000	    0.000000	    1.000000	 -360.000000	  360.000000;
  895.000000	  122.000000	    0.003080	    0.039580	    4.448400	    0.000000	    0.000000	    0.000000	    1.000000	    0.000000	    1.000000	 -360.000000	  360.000000;
  896.000000	  897.000000	    0.000500	    0.007300	    0.780600	    0.000000	    0.000000	    0.000000	    1.000000	    0.000000	    1.000000	 -360.000000	  360.000000;
  897.000000	  808.000000	    0.000000	    0.010200	    0.000000	    0.000000	    0.000000	    0.000000	    1.024000	    0.000000	    1.000000	 -360.000000	  360.000000;
  898.000000	  848.000000	    0.000000	    0.063600	    0.000000	    0.000000	    0.000000	    0.000000	    1.000000	    0.000000	    1.000000	 -360.000000	  360.000000;
  898.000000	 1047.000000	    0.001500	    0.008900	    0.016317	    0.000000	    0.000000	    0.000000	    1.000000	    0.000000	    1.000000	 -360.000000	  360.000000;
  933.000000	  895.000000	    0.002000	    0.025500	    3.127200	    0.000000	    0.000000	    0.000000	    1.000000	    0.000000	    1.000000	 -360.000000	  360.000000;
  933.000000	  955.000000	    0.001620	    0.020480	    2.501700	    0.000000	    0.000000	    0.000000	    1.000000	    0.000000	    1.000000	 -360.000000	  360.000000;
  933.000000	  959.000000	    0.002000	    0.026900	    3.364000	    0.000000	    0.000000	    0.000000	    1.000000	    0.000000	    1.000000	 -360.000000	  360.000000;
  934.000000	  933.000000	    0.000310	    0.012070	    0.000000	    0.000000	    0.000000	    0.000000	    0.974700	    0.000000	    1.000000	 -360.000000	  360.000000;
  934.000000	 1047.000000	    0.030450	    0.157380	    0.271230	    0.000000	    0.000000	    0.000000	    1.000000	    0.000000	    1.000000	 -360.000000	  360.000000;
  934.000000	 1047.000000	    0.030410	    0.157180	    0.270890	    0.000000	    0.000000	    0.000000	    1.000000	    0.000000	    1.000000	 -360.000000	  360.000000;
  938.000000	  955.000000	    0.002556	    0.029224	    3.604000	    0.000000	    0.000000	    0.000000	    1.000000	    0.000000	    1.000000	 -360.000000	  360.000000;
  938.000000	  959.000000	    0.001270	    0.016030	    1.958900	    0.000000	    0.000000	    0.000000	    1.000000	    0.000000	    1.000000	 -360.000000	  360.000000;
  939.000000	  938.000000	    0.000310	    0.011500	    0.000000	    0.000000	    0.000000	    0.000000	    0.958600	    0.000000	    1.000000	 -360.000000	  360.000000;
  939.000000	  938.000000	    0.000320	    0.011630	    0.000000	    0.000000	    0.000000	    0.000000	    0.958600	    0.000000	    1.000000	 -360.000000	  360.000000;
  939.000000	  938.000000	    0.000000	    0.012770	    0.000000	    0.000000	    0.000000	    0.000000	    0.958600	    0.000000	    1.000000	 -360.000000	  360.000000;
  939.000000	 1015.000000	    0.012710	    0.065620	    0.113050	    0.000000	    0.000000	    0.000000	    1.000000	    0.000000	    1.000000	 -360.000000	  360.000000;
  939.000000	 1015.000000	    0.012830	    0.065640	    0.115220	    0.000000	    0.000000	    0.000000	    1.000000	    0.000000	    1.000000	 -360.000000	  360.000000;
  955.000000	  964.000000	    0.001877	    0.023467	    2.872400	    0.000000	    0.000000	    0.000000	    1.000000	    0.000000	    1.000000	 -360.000000	  360.000000;
  959.000000	  895.000000	    0.000500	    0.004400	    0.475800	    0.000000	    0.000000	    0.000000	    1.000000	    0.000000	    1.000000	 -360.000000	  360.000000;
  960.000000	  834.000000	    0.022100	    0.114750	    0.196870	    0.000000	    0.000000	    0.000000	    1.000000	    0.000000	    1.000000	 -360.000000	  360.000000;
  960.000000	  959.000000	    0.000320	    0.011630	    0.000000	    0.000000	    0.000000	    0.000000	    0.991700	    0.000000	    1.000000	 -360.000000	  360.000000;
  960.000000	  959.000000	    0.000310	    0.011660	    0.000000	    0.000000	    0.000000	    0.000000	    0.991700	    0.000000	    1.000000	 -360.000000	  360.000000;
  960.000000	 1015.000000	    0.018920	    0.097760	    0.168450	    0.000000	    0.000000	    0.000000	    1.000000	    0.000000	    1.000000	 -360.000000	  360.000000;
  960.000000	 1015.000000	    0.018950	    0.097040	    0.170290	    0.000000	    0.000000	    0.000000	    1.000000	    0.000000	    1.000000	 -360.000000	  360.000000;
  964.000000	  976.000000	    0.000733	    0.009164	    1.121700	    0.000000	    0.000000	    0.000000	    1.000000	    0.000000	    1.000000	 -360.000000	  360.000000;
  965.000000	  964.000000	    0.000200	    0.012110	    0.000000	    0.000000	    0.000000	    0.000000	    0.971700	    0.000000	    1.000000	 -360.000000	  360.000000;
  965.000000	  964.000000	    0.000200	    0.012330	    0.000000	    0.000000	    0.000000	    0.000000	    0.971700	    0.000000	    1.000000	 -360.000000	  360.000000;
  976.000000	  995.000000	    0.002820	    0.038520	    4.937000	    0.000000	    0.000000	    0.000000	    1.000000	    0.000000	    1.000000	 -360.000000	  360.000000;
  995.000000	  904.000000	    0.000000	    0.011538	    0.000000	    0.000000	    0.000000	    0.000000	    1.000000	    0.000000	    1.000000	 -360.000000	  360.000000;
  995.000000	  964.000000	    0.001643	    0.030339	    3.548800	    0.000000	    0.000000	    0.000000	    1.000000	    0.000000	    1.000000	 -360.000000	  360.000000;
  995.000000	 1030.000000	    0.000730	    0.009200	    1.122600	    0.000000	    0.000000	    0.000000	    1.000000	    0.000000	    1.000000	 -360.000000	  360.000000;
  995.000000	 1060.000000	    0.001720	    0.021700	    2.651600	    0.000000	    0.000000	    0.000000	    1.000000	    0.000000	    1.000000	 -360.000000	  360.000000;
 1030.000000	  915.000000	    0.000000	    0.020655	    0.000000	    0.000000	    0.000000	    0.000000	    1.000000	    0.000000	    1.000000	 -360.000000	  360.000000;
 1030.000000	  955.000000	    0.000470	    0.005900	    0.718180	    0.000000	    0.000000	    0.000000	    1.000000	    0.000000	    1.000000	 -360.000000	  360.000000;
 1047.000000	  919.000000	    0.000000	    0.017022	    0.000000	    0.000000	    0.000000	    0.000000	    1.025000	    0.000000	    1.000000	 -360.000000	  360.000000;
 1060.000000	  897.000000	    0.000760	    0.011710	    1.245800	    0.000000	    0.000000	    0.000000	    1.000000	    0.000000	    1.000000	 -360.000000	  360.000000;
 1060.000000	  925.000000	    0.000000	    0.015150	    0.000000	    0.000000	    0.000000	    0.000000	    1.024000	    0.000000	    1.000000	 -360.000000	  360.000000;
 1210.000000	  976.000000	    0.000300	    0.012190	    0.000000	    0.000000	    0.000000	    0.000000	    1.010000	    0.000000	    1.000000	 -360.000000	  360.000000;
 1210.000000	  976.000000	    0.000390	    0.011380	    0.000000	    0.000000	    0.000000	    0.000000	    1.010000	    0.000000	    1.000000	 -360.000000	  360.000000;
 1210.000000	  976.000000	    0.000360	    0.012170	    0.000000	    0.000000	    0.000000	    0.000000	    1.010000	    0.000000	    1.000000	 -360.000000	  360.000000;
 1503.000000	 1504.000000	    0.000000	    0.052000	    0.000000	    0.000000	    0.000000	    0.000000	    1.000000	    0.000000	    1.000000	 -360.000000	  360.000000;
 2458.000000	  896.000000	    0.000000	    0.012700	    0.000000	    0.000000	    0.000000	    0.000000	    0.993800	    0.000000	    1.000000	 -360.000000	  360.000000;
 4501.000000	 4522.000000	    0.037600	    0.206800	    0.356600	    0.000000	    0.000000	    0.000000	    1.000000	    0.000000	    1.000000	 -360.000000	  360.000000;
 4501.000000	 4522.000000	    0.016400	    0.124600	    0.615000	    0.000000	    0.000000	    0.000000	    1.000000	    0.000000	    1.000000	 -360.000000	  360.000000;
 4521.000000	 4523.000000	    0.000000	    0.207100	    0.000000	    0.000000	    0.000000	    0.000000	    1.000000	    0.000000	    1.000000	 -360.000000	  360.000000;
 4522.000000	 4521.000000	    0.015300	    0.076000	    0.142500	    0.000000	    0.000000	    0.000000	    1.000000	    0.000000	    1.000000	 -360.000000	  360.000000;
 4522.000000	 4532.000000	    0.032500	    0.179200	    0.327500	    0.000000	    0.000000	    0.000000	    1.000000	    0.000000	    1.000000	 -360.000000	  360.000000;
 4522.000000	 4532.000000	    0.032500	    0.179200	    0.327500	    0.000000	    0.000000	    0.000000	    1.000000	    0.000000	    1.000000	 -360.000000	  360.000000;
 4522.000000	 4623.000000	    0.000000	    0.079500	    0.000000	    0.000000	    0.000000	    0.000000	    1.000000	    0.000000	    1.000000	 -360.000000	  360.000000;
 4522.000000	 4623.000000	    0.000000	    0.079500	    0.000000	    0.000000	    0.000000	    0.000000	    1.000000	    0.000000	    1.000000	 -360.000000	  360.000000;
 4532.000000	 4530.000000	    0.000000	    0.143000	    0.000000	    0.000000	    0.000000	    0.000000	    1.000000	    0.000000	    1.000000	 -360.000000	  360.000000;
 4532.000000	 4533.000000	    0.000000	    0.086000	    0.000000	    0.000000	    0.000000	    0.000000	    1.000000	    0.000000	    1.000000	 -360.000000	  360.000000;
 4532.000000	 4533.000000	    0.000000	    0.086000	    0.000000	    0.000000	    0.000000	    0.000000	    1.000000	    0.000000	    1.000000	 -360.000000	  360.000000;
 4532.000000	 4533.000000	    0.000000	    0.086000	    0.000000	    0.000000	    0.000000	    0.000000	    1.000000	    0.000000	    1.000000	 -360.000000	  360.000000;
 4532.000000	 4542.000000	    0.016200	    0.096800	    0.191500	    0.000000	    0.000000	    0.000000	    1.000000	    0.000000	    1.000000	 -360.000000	  360.000000;
 4533.000000	 4596.000000	    0.000000	    0.037635	    0.000000	    0.000000	    0.000000	    0.000000	    1.000000	    0.000000	    1.000000	 -360.000000	  360.000000;
 4542.000000	 4552.000000	    0.018300	    0.109300	    0.186000	    0.000000	    0.000000	    0.000000	    1.000000	    0.000000	    1.000000	 -360.000000	  360.000000;
 4552.000000	 4572.000000	    0.014000	    0.083800	    0.170000	    0.000000	    0.000000	    0.000000	    1.000000	    0.000000	    1.000000	 -360.000000	  360.000000;
 4562.000000	 4572.000000	    0.009400	    0.055900	    0.106440	    0.000000	    0.000000	    0.000000	    1.000000	    0.000000	    1.000000	 -360.000000	  360.000000;
 4562.000000	 4582.000000	    0.012400	    0.073800	    0.132800	    0.000000	    0.000000	    0.000000	    1.000000	    0.000000	    1.000000	 -360.000000	  360.000000;
 4592.000000	   21.000000	    0.000000	    0.064000	    0.000000	    0.000000	    0.000000	    0.000000	    1.000000	    0.000000	    1.000000	 -360.000000	  360.000000;
 4592.000000	 4542.000000	    0.010000	    0.061700	    0.126000	    0.000000	    0.000000	    0.000000	    1.000000	    0.000000	    1.000000	 -360.000000	  360.000000;
 4623.000000	 4533.000000	    0.170600	    0.455000	    0.113900	    0.000000	    0.000000	    0.000000	    1.000000	    0.000000	    1.000000	 -360.000000	  360.000000;
 4703.000000	 4533.000000	    0.009000	    0.023100	    0.005800	    0.000000	    0.000000	    0.000000	    1.000000	    0.000000	    1.000000	 -360.000000	  360.000000;
 4703.000000	 4533.000000	    0.009000	    0.023100	    0.005800	    0.000000	    0.000000	    0.000000	    1.000000	    0.000000	    1.000000	 -360.000000	  360.000000;
 4805.000000	 4804.000000	    0.000000	    0.133330	    0.000000	    0.000000	    0.000000	    0.000000	    1.000000	    0.000000	    1.000000	 -360.000000	  360.000000;
 4805.000000	 4807.000000	    0.030890	    0.081340	    0.020850	    0.000000	    0.000000	    0.000000	    1.000000	    0.000000	    1.000000	 -360.000000	  360.000000;
 4805.000000	 4807.000000	    0.030890	    0.081340	    0.020850	    0.000000	    0.000000	    0.000000	    1.000000	    0.000000	    1.000000	 -360.000000	  360.000000;
 4862.000000	 4532.000000	    0.025700	    0.236800	    0.974200	    0.000000	    0.000000	    0.000000	    1.000000	    0.000000	    1.000000	 -360.000000	  360.000000;
 4862.000000	 4532.000000	    0.025700	    0.236800	    0.974200	    0.000000	    0.000000	    0.000000	    1.000000	    0.000000	    1.000000	 -360.000000	  360.000000;
 4862.000000	 4807.000000	    0.000000	    0.040500	    0.000000	    0.000000	    0.000000	    0.000000	    1.000000	    0.000000	    1.000000	 -360.000000	  360.000000;
];